* NGSPICE file created from user_analog_project_wrapper.ext - technology: sky130B

.subckt sky130_fd_pr__nfet_g5v0d10v5_27DT82 a_n345_n100# a_29_n126# a_n129_n126# a_287_n100#
+ a_187_n126# a_n287_n126# VSUBS
X0 a_129_n100# a_29_n126# a_n29_n100# VSUBS sky130_fd_pr__nfet_g5v0d10v5 ad=2.9e+11p pd=2.58e+06u as=2.9e+11p ps=2.58e+06u w=1e+06u l=500000u
X1 a_n187_n100# a_n287_n126# a_n345_n100# VSUBS sky130_fd_pr__nfet_g5v0d10v5 ad=2.9e+11p pd=2.58e+06u as=2.9e+11p ps=2.58e+06u w=1e+06u l=500000u
X2 a_n29_n100# a_n129_n126# a_n187_n100# VSUBS sky130_fd_pr__nfet_g5v0d10v5 ad=0p pd=0u as=0p ps=0u w=1e+06u l=500000u
X3 a_287_n100# a_187_n126# a_129_n100# VSUBS sky130_fd_pr__nfet_g5v0d10v5 ad=2.9e+11p pd=2.58e+06u as=0p ps=0u w=1e+06u l=500000u
.ends

.subckt x1T1R_W1um_F4_layout BL WL sky130_fd_pr__nfet_g5v0d10v5_27DT82_0/VSUBS SL
Xsky130_fd_pr__nfet_g5v0d10v5_27DT82_0 SL WL WL m1_642_36# WL WL sky130_fd_pr__nfet_g5v0d10v5_27DT82_0/VSUBS
+ sky130_fd_pr__nfet_g5v0d10v5_27DT82
.ends

.subckt sky130_fd_pr__pfet_g5v0d10v5_HDJJAB a_50_n42# a_n50_n68# a_n108_n42# w_n144_n104#
X0 a_50_n42# a_n50_n68# a_n108_n42# w_n144_n104# sky130_fd_pr__pfet_g5v0d10v5 ad=1.218e+11p pd=1.42e+06u as=1.218e+11p ps=1.42e+06u w=420000u l=500000u
.ends

.subckt sky130_fd_pr__nfet_g5v0d10v5_A3ZYGX a_50_n42# a_n50_n68# a_n108_n42# VSUBS
X0 a_50_n42# a_n50_n68# a_n108_n42# VSUBS sky130_fd_pr__nfet_g5v0d10v5 ad=1.218e+11p pd=1.42e+06u as=1.218e+11p ps=1.42e+06u w=420000u l=500000u
.ends

.subckt sky130_fd_pr__nfet_g5v0d10v5_RU632G a_60_n42# a_n60_n68# a_n118_n42# VSUBS
X0 a_60_n42# a_n60_n68# a_n118_n42# VSUBS sky130_fd_pr__nfet_g5v0d10v5 ad=1.218e+11p pd=1.42e+06u as=1.218e+11p ps=1.42e+06u w=420000u l=600000u
.ends

.subckt sky130_fd_pr__pfet_g5v0d10v5_DG94C2 w_n154_n146# a_n118_n84# a_60_n84# a_n60_n110#
X0 a_60_n84# a_n60_n110# a_n118_n84# w_n154_n146# sky130_fd_pr__pfet_g5v0d10v5 ad=2.436e+11p pd=2.26e+06u as=2.436e+11p ps=2.26e+06u w=840000u l=600000u
.ends

.subckt nand_D1_g5d10 VSS IN0 IN1 OUT VDD w_n34_n298# VSUBS
Xsky130_fd_pr__nfet_g5v0d10v5_RU632G_0 sky130_fd_pr__nfet_g5v0d10v5_RU632G_0/a_60_n42#
+ IN0 VSS VSUBS sky130_fd_pr__nfet_g5v0d10v5_RU632G
Xsky130_fd_pr__nfet_g5v0d10v5_RU632G_1 OUT IN1 sky130_fd_pr__nfet_g5v0d10v5_RU632G_0/a_60_n42#
+ VSUBS sky130_fd_pr__nfet_g5v0d10v5_RU632G
Xsky130_fd_pr__pfet_g5v0d10v5_DG94C2_0 w_n34_n298# VDD OUT IN0 sky130_fd_pr__pfet_g5v0d10v5_DG94C2
Xsky130_fd_pr__pfet_g5v0d10v5_DG94C2_1 w_n34_n298# OUT VDD IN1 sky130_fd_pr__pfet_g5v0d10v5_DG94C2
.ends

.subckt sky130_fd_pr__pfet_g5v0d10v5_CG94UW a_n108_n84# w_n144_n146# a_50_n84# a_n50_n110#
X0 a_50_n84# a_n50_n110# a_n108_n84# w_n144_n146# sky130_fd_pr__pfet_g5v0d10v5 ad=2.436e+11p pd=2.26e+06u as=2.436e+11p ps=2.26e+06u w=840000u l=500000u
.ends

.subckt and2_g5D10 OUT VDD nand_D1_g5d10_0/IN1 nand_D1_g5d10_0/IN0 nand_D1_g5d10_0/VSS
+ nand_D1_g5d10_0/VDD VSUBS
Xnand_D1_g5d10_0 nand_D1_g5d10_0/VSS nand_D1_g5d10_0/IN0 nand_D1_g5d10_0/IN1 nand_D1_g5d10_0/OUT
+ nand_D1_g5d10_0/VDD VDD VSUBS nand_D1_g5d10
Xsky130_fd_pr__nfet_g5v0d10v5_A3ZYGX_0 OUT nand_D1_g5d10_0/OUT nand_D1_g5d10_0/VSS
+ VSUBS sky130_fd_pr__nfet_g5v0d10v5_A3ZYGX
Xsky130_fd_pr__pfet_g5v0d10v5_CG94UW_0 nand_D1_g5d10_0/VDD VDD OUT nand_D1_g5d10_0/OUT
+ sky130_fd_pr__pfet_g5v0d10v5_CG94UW
.ends

.subckt sky130_fd_pr__pfet_g5v0d10v5_GK82RQ w_n144_n162# a_50_n100# a_n50_n126# a_n108_n100#
X0 a_50_n100# a_n50_n126# a_n108_n100# w_n144_n162# sky130_fd_pr__pfet_g5v0d10v5 ad=2.9e+11p pd=2.58e+06u as=2.9e+11p ps=2.58e+06u w=1e+06u l=500000u
.ends

.subckt inverter_d5g10_W1um_L0p420 IN OUT w_n50_n420# VSS VDD VSUBS
Xsky130_fd_pr__pfet_g5v0d10v5_GK82RQ_0 w_n50_n420# OUT IN VDD sky130_fd_pr__pfet_g5v0d10v5_GK82RQ
Xsky130_fd_pr__nfet_g5v0d10v5_A3ZYGX_0 OUT IN VSS VSUBS sky130_fd_pr__nfet_g5v0d10v5_A3ZYGX
.ends

.subckt decoder_D1_g5d10 IN0 IN1 OUT0 OUT1 OUT2 OUT3 VSS VDD
Xand2_g5D10_0 OUT0 VDD inverter_d5g10_W1um_L0p420_0/OUT inverter_d5g10_W1um_L0p420_1/OUT
+ VSS VDD VSS and2_g5D10
Xand2_g5D10_1 OUT1 VDD IN0 inverter_d5g10_W1um_L0p420_0/OUT VSS VDD VSS and2_g5D10
Xand2_g5D10_2 OUT2 VDD IN1 inverter_d5g10_W1um_L0p420_1/OUT VSS VDD VSS and2_g5D10
Xand2_g5D10_3 OUT3 VDD IN0 IN1 VSS VDD VSS and2_g5D10
Xinverter_d5g10_W1um_L0p420_0 IN0 inverter_d5g10_W1um_L0p420_0/OUT VDD VSS VDD VSS
+ inverter_d5g10_W1um_L0p420
Xinverter_d5g10_W1um_L0p420_1 IN1 inverter_d5g10_W1um_L0p420_1/OUT VDD VSS VDD VSS
+ inverter_d5g10_W1um_L0p420
.ends

.subckt sky130_fd_pr__pfet_g5v0d10v5_54DD5S w_n154_n146# a_n118_n84# a_60_n84# a_n60_n110#
X0 a_60_n84# a_n60_n110# a_n118_n84# w_n154_n146# sky130_fd_pr__pfet_g5v0d10v5 ad=2.436e+11p pd=2.26e+06u as=2.436e+11p ps=2.26e+06u w=840000u l=600000u
.ends

.subckt inverter_D1_g5v10 VDD GND IN OUT w_n98_n608# VSUBS
Xsky130_fd_pr__nfet_g5v0d10v5_RU632G_0 OUT IN GND VSUBS sky130_fd_pr__nfet_g5v0d10v5_RU632G
Xsky130_fd_pr__pfet_g5v0d10v5_54DD5S_0 w_n98_n608# VDD OUT IN sky130_fd_pr__pfet_g5v0d10v5_54DD5S
.ends

.subckt decoder_with_pmos_D1_g5d10_tapped_2305 V1 V2 V3 V4 OUT IN0 IN1 VSS VDD
Xsky130_fd_pr__pfet_g5v0d10v5_HDJJAB_0 OUT inverter_D1_g5v10_2/OUT V2 VDD sky130_fd_pr__pfet_g5v0d10v5_HDJJAB
Xsky130_fd_pr__pfet_g5v0d10v5_HDJJAB_1 OUT inverter_D1_g5v10_1/OUT V1 VDD sky130_fd_pr__pfet_g5v0d10v5_HDJJAB
Xsky130_fd_pr__pfet_g5v0d10v5_HDJJAB_2 OUT inverter_D1_g5v10_0/OUT V4 VDD sky130_fd_pr__pfet_g5v0d10v5_HDJJAB
Xsky130_fd_pr__nfet_g5v0d10v5_A3ZYGX_0 OUT decoder_D1_g5d10_0/OUT2 V3 VSS sky130_fd_pr__nfet_g5v0d10v5_A3ZYGX
Xdecoder_D1_g5d10_0 IN0 IN1 inverter_D1_g5v10_1/IN inverter_D1_g5v10_2/IN decoder_D1_g5d10_0/OUT2
+ inverter_D1_g5v10_0/IN VSS VDD decoder_D1_g5d10
Xinverter_D1_g5v10_0 VDD VSS inverter_D1_g5v10_0/IN inverter_D1_g5v10_0/OUT VDD VSS
+ inverter_D1_g5v10
Xinverter_D1_g5v10_1 VDD VSS inverter_D1_g5v10_1/IN inverter_D1_g5v10_1/OUT VDD VSS
+ inverter_D1_g5v10
Xinverter_D1_g5v10_2 VDD VSS inverter_D1_g5v10_2/IN inverter_D1_g5v10_2/OUT VDD VSS
+ inverter_D1_g5v10
.ends

.subckt sky130_fd_pr__nfet_01v8_FNPZCM a_15_n42# a_n15_n68# a_n73_n42# VSUBS
X0 a_15_n42# a_n15_n68# a_n73_n42# VSUBS sky130_fd_pr__nfet_01v8 ad=1.218e+11p pd=1.42e+06u as=1.218e+11p ps=1.42e+06u w=420000u l=150000u
.ends

.subckt sky130_fd_pr__pfet_01v8_6PK3KM w_n109_n146# a_n73_n84# a_15_n84# a_n15_n110#
X0 a_15_n84# a_n15_n110# a_n73_n84# w_n109_n146# sky130_fd_pr__pfet_01v8 ad=2.436e+11p pd=2.26e+06u as=2.436e+11p ps=2.26e+06u w=840000u l=150000u
.ends

.subckt inv_D1_1v8 VDD VSS OUT IN
Xsky130_fd_pr__nfet_01v8_FNPZCM_0 OUT IN VSS VSS sky130_fd_pr__nfet_01v8_FNPZCM
Xsky130_fd_pr__pfet_01v8_6PK3KM_0 VDD VDD OUT IN sky130_fd_pr__pfet_01v8_6PK3KM
.ends

.subckt sky130_fd_pr__nfet_g5v0d10v5_PDTLGW a_50_n100# a_n50_n126# a_n108_n100# VSUBS
X0 a_50_n100# a_n50_n126# a_n108_n100# VSUBS sky130_fd_pr__nfet_g5v0d10v5 ad=2.9e+11p pd=2.58e+06u as=2.9e+11p ps=2.58e+06u w=1e+06u l=500000u
.ends

.subckt VLS_g5D10_LV1v8_HV5V VDD_HIGH_5V VDD_LOW_1v8 DATA_IN_LV_1v8 DATA_OUT_HV_5V
+ VSS
Xsky130_fd_pr__pfet_g5v0d10v5_HDJJAB_0 VDD_HIGH_5V inverter_D1_g5v10_1/IN a_522_n46#
+ VDD_HIGH_5V sky130_fd_pr__pfet_g5v0d10v5_HDJJAB
Xsky130_fd_pr__pfet_g5v0d10v5_HDJJAB_1 inverter_D1_g5v10_1/IN a_522_n46# VDD_HIGH_5V
+ VDD_HIGH_5V sky130_fd_pr__pfet_g5v0d10v5_HDJJAB
Xinv_D1_1v8_0 VDD_LOW_1v8 VSS inv_D1_1v8_0/OUT DATA_IN_LV_1v8 inv_D1_1v8
Xsky130_fd_pr__nfet_g5v0d10v5_PDTLGW_1 inverter_D1_g5v10_1/IN inv_D1_1v8_0/OUT VSS
+ VSS sky130_fd_pr__nfet_g5v0d10v5_PDTLGW
Xsky130_fd_pr__nfet_g5v0d10v5_PDTLGW_0 VSS DATA_IN_LV_1v8 a_522_n46# VSS sky130_fd_pr__nfet_g5v0d10v5_PDTLGW
Xinverter_D1_g5v10_0 VDD_HIGH_5V VSS inverter_D1_g5v10_0/IN DATA_OUT_HV_5V VDD_HIGH_5V
+ VSS inverter_D1_g5v10
Xinverter_D1_g5v10_1 VDD_HIGH_5V VSS inverter_D1_g5v10_1/IN inverter_D1_g5v10_0/IN
+ VDD_HIGH_5V VSS inverter_D1_g5v10
.ends

.subckt VLS_1v8to5V_D1_And_VoltSelector_Layout V2 V3 V4 DATA_IN_LV_0 DATA_IN_LV_1
+ VLS_g5D10_LV1v8_HV5V_1/DATA_OUT_HV_5V VLS_g5D10_LV1v8_HV5V_0/DATA_OUT_HV_5V V1 VDD_HIGH
+ VDD_LOW HV_OUT VSUBS
Xdecoder_with_pmos_D1_g5d10_tapped_2305_0 V1 V2 V3 V4 HV_OUT VLS_g5D10_LV1v8_HV5V_0/DATA_OUT_HV_5V
+ VLS_g5D10_LV1v8_HV5V_1/DATA_OUT_HV_5V VSUBS VDD_HIGH decoder_with_pmos_D1_g5d10_tapped_2305
XVLS_g5D10_LV1v8_HV5V_0 VDD_HIGH VDD_LOW DATA_IN_LV_0 VLS_g5D10_LV1v8_HV5V_0/DATA_OUT_HV_5V
+ VSUBS VLS_g5D10_LV1v8_HV5V
XVLS_g5D10_LV1v8_HV5V_1 VDD_HIGH VDD_LOW DATA_IN_LV_1 VLS_g5D10_LV1v8_HV5V_1/DATA_OUT_HV_5V
+ VSUBS VLS_g5D10_LV1v8_HV5V
.ends

.subckt x1T1R_LHS_05_06 VLS_1v8to5V_D1_And_VoltSelector_Layout_0/VDD_HIGH 1T1R_W1um_F4_layout_0/BL
+ 1T1R_W1um_F4_layout_0/WL VLS_1v8to5V_D1_And_VoltSelector_Layout_0/VLS_g5D10_LV1v8_HV5V_1/DATA_OUT_HV_5V
+ VLS_1v8to5V_D1_And_VoltSelector_Layout_0/VLS_g5D10_LV1v8_HV5V_0/DATA_OUT_HV_5V VLS_1v8to5V_D1_And_VoltSelector_Layout_0/DATA_IN_LV_1
+ VLS_1v8to5V_D1_And_VoltSelector_Layout_0/DATA_IN_LV_0 VLS_1v8to5V_D1_And_VoltSelector_Layout_0/V4
+ VLS_1v8to5V_D1_And_VoltSelector_Layout_0/V3 VLS_1v8to5V_D1_And_VoltSelector_Layout_0/V2
+ VLS_1v8to5V_D1_And_VoltSelector_Layout_0/V1 1T1R_W1um_F4_layout_0/SL VSUBS VLS_1v8to5V_D1_And_VoltSelector_Layout_0/VDD_LOW
X1T1R_W1um_F4_layout_0 1T1R_W1um_F4_layout_0/BL 1T1R_W1um_F4_layout_0/WL VSUBS 1T1R_W1um_F4_layout_0/SL
+ x1T1R_W1um_F4_layout
XVLS_1v8to5V_D1_And_VoltSelector_Layout_0 VLS_1v8to5V_D1_And_VoltSelector_Layout_0/V2
+ VLS_1v8to5V_D1_And_VoltSelector_Layout_0/V3 VLS_1v8to5V_D1_And_VoltSelector_Layout_0/V4
+ VLS_1v8to5V_D1_And_VoltSelector_Layout_0/DATA_IN_LV_0 VLS_1v8to5V_D1_And_VoltSelector_Layout_0/DATA_IN_LV_1
+ VLS_1v8to5V_D1_And_VoltSelector_Layout_0/VLS_g5D10_LV1v8_HV5V_1/DATA_OUT_HV_5V VLS_1v8to5V_D1_And_VoltSelector_Layout_0/VLS_g5D10_LV1v8_HV5V_0/DATA_OUT_HV_5V
+ VLS_1v8to5V_D1_And_VoltSelector_Layout_0/V1 VLS_1v8to5V_D1_And_VoltSelector_Layout_0/VDD_HIGH
+ VLS_1v8to5V_D1_And_VoltSelector_Layout_0/VDD_LOW 1T1R_W1um_F4_layout_0/WL VSUBS
+ VLS_1v8to5V_D1_And_VoltSelector_Layout
.ends

.subckt x1T1R_LHS_05_06_15x1 1T1R_LHS_05_06_0[5]/VLS_1v8to5V_D1_And_VoltSelector_Layout_0/DATA_IN_LV_1
+ 1T1R_LHS_05_06_0[7]/VLS_1v8to5V_D1_And_VoltSelector_Layout_0/V4 1T1R_LHS_05_06_0[5]/VLS_1v8to5V_D1_And_VoltSelector_Layout_0/DATA_IN_LV_0
+ 1T1R_LHS_05_06_0[11]/VLS_1v8to5V_D1_And_VoltSelector_Layout_0/V3 1T1R_LHS_05_06_0[7]/VLS_1v8to5V_D1_And_VoltSelector_Layout_0/V3
+ 1T1R_LHS_05_06_0[11]/VLS_1v8to5V_D1_And_VoltSelector_Layout_0/DATA_IN_LV_1 1T1R_LHS_05_06_0[11]/VLS_1v8to5V_D1_And_VoltSelector_Layout_0/V2
+ 1T1R_LHS_05_06_0[7]/VLS_1v8to5V_D1_And_VoltSelector_Layout_0/V2 1T1R_LHS_05_06_0[11]/VLS_1v8to5V_D1_And_VoltSelector_Layout_0/DATA_IN_LV_0
+ 1T1R_LHS_05_06_0[11]/VLS_1v8to5V_D1_And_VoltSelector_Layout_0/V1 1T1R_LHS_05_06_0[7]/VLS_1v8to5V_D1_And_VoltSelector_Layout_0/V1
+ 1T1R_LHS_05_06_0[4]/VLS_1v8to5V_D1_And_VoltSelector_Layout_0/V4 1T1R_LHS_05_06_0[6]/VLS_1v8to5V_D1_And_VoltSelector_Layout_0/DATA_IN_LV_1
+ 1T1R_LHS_05_06_0[4]/VLS_1v8to5V_D1_And_VoltSelector_Layout_0/VDD_HIGH 1T1R_LHS_05_06_0[4]/VLS_1v8to5V_D1_And_VoltSelector_Layout_0/V3
+ 1T1R_LHS_05_06_0[6]/VLS_1v8to5V_D1_And_VoltSelector_Layout_0/DATA_IN_LV_0 1T1R_LHS_05_06_0[12]/VLS_1v8to5V_D1_And_VoltSelector_Layout_0/DATA_IN_LV_1
+ 1T1R_LHS_05_06_0[4]/VLS_1v8to5V_D1_And_VoltSelector_Layout_0/V2 1T1R_LHS_05_06_0[2]/VLS_1v8to5V_D1_And_VoltSelector_Layout_0/VDD_LOW
+ 1T1R_LHS_05_06_0[4]/VLS_1v8to5V_D1_And_VoltSelector_Layout_0/V1 1T1R_LHS_05_06_0[1]/VLS_1v8to5V_D1_And_VoltSelector_Layout_0/V4
+ 1T1R_LHS_05_06_0[12]/VLS_1v8to5V_D1_And_VoltSelector_Layout_0/DATA_IN_LV_0 1T1R_LHS_05_06_0[2]/1T1R_W1um_F4_layout_0/WL
+ 1T1R_LHS_05_06_0[1]/VLS_1v8to5V_D1_And_VoltSelector_Layout_0/V3 1T1R_LHS_05_06_0[7]/VLS_1v8to5V_D1_And_VoltSelector_Layout_0/DATA_IN_LV_1
+ 1T1R_LHS_05_06_0[14]/VLS_1v8to5V_D1_And_VoltSelector_Layout_0/VDD_HIGH 1T1R_LHS_05_06_0[5]/1T1R_W1um_F4_layout_0/WL
+ 1T1R_LHS_05_06_0[7]/VLS_1v8to5V_D1_And_VoltSelector_Layout_0/DATA_IN_LV_0 1T1R_LHS_05_06_0[1]/VLS_1v8to5V_D1_And_VoltSelector_Layout_0/V2
+ 1T1R_LHS_05_06_0[13]/VLS_1v8to5V_D1_And_VoltSelector_Layout_0/DATA_IN_LV_1 1T1R_LHS_05_06_0[1]/VLS_1v8to5V_D1_And_VoltSelector_Layout_0/V1
+ 1T1R_LHS_05_06_0[6]/VLS_1v8to5V_D1_And_VoltSelector_Layout_0/VDD_HIGH 1T1R_LHS_05_06_0[13]/VLS_1v8to5V_D1_And_VoltSelector_Layout_0/V4
+ 1T1R_LHS_05_06_0[13]/VLS_1v8to5V_D1_And_VoltSelector_Layout_0/DATA_IN_LV_0 1T1R_LHS_05_06_0[9]/VLS_1v8to5V_D1_And_VoltSelector_Layout_0/V4
+ 1T1R_LHS_05_06_0[13]/VLS_1v8to5V_D1_And_VoltSelector_Layout_0/V3 1T1R_LHS_05_06_0[8]/VLS_1v8to5V_D1_And_VoltSelector_Layout_0/DATA_IN_LV_1
+ 1T1R_LHS_05_06_0[9]/VLS_1v8to5V_D1_And_VoltSelector_Layout_0/V3 1T1R_LHS_05_06_0[13]/VLS_1v8to5V_D1_And_VoltSelector_Layout_0/V2
+ 1T1R_LHS_05_06_0[8]/VLS_1v8to5V_D1_And_VoltSelector_Layout_0/DATA_IN_LV_0 1T1R_LHS_05_06_0[9]/VLS_1v8to5V_D1_And_VoltSelector_Layout_0/V2
+ 1T1R_LHS_05_06_0[10]/VLS_1v8to5V_D1_And_VoltSelector_Layout_0/V4 1T1R_LHS_05_06_0[14]/VLS_1v8to5V_D1_And_VoltSelector_Layout_0/DATA_IN_LV_1
+ 1T1R_LHS_05_06_0[13]/VLS_1v8to5V_D1_And_VoltSelector_Layout_0/V1 1T1R_LHS_05_06_0[9]/VLS_1v8to5V_D1_And_VoltSelector_Layout_0/VDD_HIGH
+ 1T1R_LHS_05_06_0[9]/VLS_1v8to5V_D1_And_VoltSelector_Layout_0/V1 1T1R_LHS_05_06_0[6]/VLS_1v8to5V_D1_And_VoltSelector_Layout_0/V4
+ 1T1R_LHS_05_06_0[14]/VLS_1v8to5V_D1_And_VoltSelector_Layout_0/DATA_IN_LV_0 1T1R_LHS_05_06_0[10]/VLS_1v8to5V_D1_And_VoltSelector_Layout_0/V3
+ 1T1R_LHS_05_06_0[0]/VLS_1v8to5V_D1_And_VoltSelector_Layout_0/VDD_LOW 1T1R_LHS_05_06_0[6]/VLS_1v8to5V_D1_And_VoltSelector_Layout_0/V3
+ 1T1R_LHS_05_06_0[9]/VLS_1v8to5V_D1_And_VoltSelector_Layout_0/DATA_IN_LV_1 1T1R_LHS_05_06_0[10]/VLS_1v8to5V_D1_And_VoltSelector_Layout_0/V2
+ 1T1R_LHS_05_06_0[6]/VLS_1v8to5V_D1_And_VoltSelector_Layout_0/V2 1T1R_LHS_05_06_0[3]/VLS_1v8to5V_D1_And_VoltSelector_Layout_0/VDD_HIGH
+ 1T1R_LHS_05_06_0[9]/VLS_1v8to5V_D1_And_VoltSelector_Layout_0/DATA_IN_LV_0 1T1R_LHS_05_06_0[10]/VLS_1v8to5V_D1_And_VoltSelector_Layout_0/V1
+ 1T1R_LHS_05_06_0[3]/VLS_1v8to5V_D1_And_VoltSelector_Layout_0/V4 1T1R_LHS_05_06_0[6]/VLS_1v8to5V_D1_And_VoltSelector_Layout_0/V1
+ 1T1R_LHS_05_06_0[14]/VLS_1v8to5V_D1_And_VoltSelector_Layout_0/VDD_LOW 1T1R_LHS_05_06_0[3]/VLS_1v8to5V_D1_And_VoltSelector_Layout_0/V3
+ 1T1R_LHS_05_06_0[0]/VLS_1v8to5V_D1_And_VoltSelector_Layout_0/DATA_IN_LV_1 1T1R_LHS_05_06_0[3]/1T1R_W1um_F4_layout_0/WL
+ 1T1R_LHS_05_06_0[8]/VLS_1v8to5V_D1_And_VoltSelector_Layout_0/VDD_HIGH 1T1R_LHS_05_06_0[3]/VLS_1v8to5V_D1_And_VoltSelector_Layout_0/V2
+ 1T1R_LHS_05_06_0[0]/VLS_1v8to5V_D1_And_VoltSelector_Layout_0/DATA_IN_LV_0 1T1R_LHS_05_06_0[13]/1T1R_W1um_F4_layout_0/WL
+ 1T1R_LHS_05_06_0[3]/VLS_1v8to5V_D1_And_VoltSelector_Layout_0/V1 1T1R_LHS_05_06_0[0]/VLS_1v8to5V_D1_And_VoltSelector_Layout_0/V4
+ 1T1R_LHS_05_06_0[3]/VLS_1v8to5V_D1_And_VoltSelector_Layout_0/VDD_LOW 1T1R_LHS_05_06_0[8]/VLS_1v8to5V_D1_And_VoltSelector_Layout_0/VDD_LOW
+ 1T1R_LHS_05_06_0[9]/1T1R_W1um_F4_layout_0/SL 1T1R_LHS_05_06_0[0]/VLS_1v8to5V_D1_And_VoltSelector_Layout_0/V3
+ 1T1R_LHS_05_06_0[1]/VLS_1v8to5V_D1_And_VoltSelector_Layout_0/DATA_IN_LV_1 1T1R_LHS_05_06_0[0]/1T1R_W1um_F4_layout_0/WL
+ 1T1R_LHS_05_06_0[0]/VLS_1v8to5V_D1_And_VoltSelector_Layout_0/V2 1T1R_LHS_05_06_0[6]/1T1R_W1um_F4_layout_0/WL
+ 1T1R_LHS_05_06_0[13]/VLS_1v8to5V_D1_And_VoltSelector_Layout_0/VDD_HIGH 1T1R_LHS_05_06_0[0]/VLS_1v8to5V_D1_And_VoltSelector_Layout_0/V1
+ 1T1R_LHS_05_06_0[1]/VLS_1v8to5V_D1_And_VoltSelector_Layout_0/DATA_IN_LV_0 1T1R_LHS_05_06_0[10]/1T1R_W1um_F4_layout_0/WL
+ 1T1R_LHS_05_06_0[12]/VLS_1v8to5V_D1_And_VoltSelector_Layout_0/V4 1T1R_LHS_05_06_0[7]/VLS_1v8to5V_D1_And_VoltSelector_Layout_0/VDD_LOW
+ 1T1R_LHS_05_06_0[8]/VLS_1v8to5V_D1_And_VoltSelector_Layout_0/V4 1T1R_LHS_05_06_0[5]/VLS_1v8to5V_D1_And_VoltSelector_Layout_0/VDD_HIGH
+ 1T1R_LHS_05_06_0[12]/VLS_1v8to5V_D1_And_VoltSelector_Layout_0/V3 1T1R_LHS_05_06_0[8]/VLS_1v8to5V_D1_And_VoltSelector_Layout_0/V3
+ 1T1R_LHS_05_06_0[2]/VLS_1v8to5V_D1_And_VoltSelector_Layout_0/DATA_IN_LV_1 1T1R_LHS_05_06_0[12]/VLS_1v8to5V_D1_And_VoltSelector_Layout_0/V2
+ 1T1R_LHS_05_06_0[9]/1T1R_W1um_F4_layout_0/WL 1T1R_LHS_05_06_0[8]/VLS_1v8to5V_D1_And_VoltSelector_Layout_0/V2
+ 1T1R_LHS_05_06_0[2]/VLS_1v8to5V_D1_And_VoltSelector_Layout_0/DATA_IN_LV_0 1T1R_LHS_05_06_0[12]/VLS_1v8to5V_D1_And_VoltSelector_Layout_0/V1
+ 1T1R_LHS_05_06_0[6]/VLS_1v8to5V_D1_And_VoltSelector_Layout_0/VDD_LOW 1T1R_LHS_05_06_0[8]/VLS_1v8to5V_D1_And_VoltSelector_Layout_0/V1
+ 1T1R_LHS_05_06_0[5]/VLS_1v8to5V_D1_And_VoltSelector_Layout_0/V4 1T1R_LHS_05_06_0[11]/VLS_1v8to5V_D1_And_VoltSelector_Layout_0/VDD_LOW
+ 1T1R_LHS_05_06_0[5]/VLS_1v8to5V_D1_And_VoltSelector_Layout_0/V3 1T1R_LHS_05_06_0[1]/VLS_1v8to5V_D1_And_VoltSelector_Layout_0/VDD_LOW
+ 1T1R_LHS_05_06_0[5]/VLS_1v8to5V_D1_And_VoltSelector_Layout_0/V2 1T1R_LHS_05_06_0[3]/VLS_1v8to5V_D1_And_VoltSelector_Layout_0/DATA_IN_LV_1
+ 1T1R_LHS_05_06_0[2]/VLS_1v8to5V_D1_And_VoltSelector_Layout_0/VDD_HIGH 1T1R_LHS_05_06_0[5]/VLS_1v8to5V_D1_And_VoltSelector_Layout_0/V1
+ 1T1R_LHS_05_06_0[2]/VLS_1v8to5V_D1_And_VoltSelector_Layout_0/V4 1T1R_LHS_05_06_0[5]/VLS_1v8to5V_D1_And_VoltSelector_Layout_0/VDD_LOW
+ 1T1R_LHS_05_06_0[3]/VLS_1v8to5V_D1_And_VoltSelector_Layout_0/DATA_IN_LV_0 1T1R_LHS_05_06_0[12]/1T1R_W1um_F4_layout_0/WL
+ 1T1R_LHS_05_06_0[2]/VLS_1v8to5V_D1_And_VoltSelector_Layout_0/V3 1T1R_LHS_05_06_0[4]/1T1R_W1um_F4_layout_0/WL
+ 1T1R_LHS_05_06_0[9]/VLS_1v8to5V_D1_And_VoltSelector_Layout_0/VDD_LOW 1T1R_LHS_05_06_0[2]/VLS_1v8to5V_D1_And_VoltSelector_Layout_0/V2
+ 1T1R_LHS_05_06_0[7]/VLS_1v8to5V_D1_And_VoltSelector_Layout_0/VDD_HIGH 1T1R_LHS_05_06_0[1]/1T1R_W1um_F4_layout_0/WL
+ 1T1R_LHS_05_06_0[2]/VLS_1v8to5V_D1_And_VoltSelector_Layout_0/V1 1T1R_LHS_05_06_0[10]/VLS_1v8to5V_D1_And_VoltSelector_Layout_0/VDD_HIGH
+ 1T1R_LHS_05_06_0[4]/VLS_1v8to5V_D1_And_VoltSelector_Layout_0/DATA_IN_LV_1 1T1R_LHS_05_06_0[13]/VLS_1v8to5V_D1_And_VoltSelector_Layout_0/VDD_LOW
+ 1T1R_LHS_05_06_0[14]/VLS_1v8to5V_D1_And_VoltSelector_Layout_0/V4 1T1R_LHS_05_06_0[4]/VLS_1v8to5V_D1_And_VoltSelector_Layout_0/DATA_IN_LV_0
+ 1T1R_LHS_05_06_0[11]/1T1R_W1um_F4_layout_0/WL 1T1R_LHS_05_06_0[12]/VLS_1v8to5V_D1_And_VoltSelector_Layout_0/VDD_LOW
+ 1T1R_LHS_05_06_0[0]/VLS_1v8to5V_D1_And_VoltSelector_Layout_0/VDD_HIGH 1T1R_LHS_05_06_0[14]/1T1R_W1um_F4_layout_0/WL
+ 1T1R_LHS_05_06_0[9]/1T1R_W1um_F4_layout_0/BL 1T1R_LHS_05_06_0[4]/VLS_1v8to5V_D1_And_VoltSelector_Layout_0/VDD_LOW
+ 1T1R_LHS_05_06_0[14]/VLS_1v8to5V_D1_And_VoltSelector_Layout_0/VLS_g5D10_LV1v8_HV5V_1/DATA_OUT_HV_5V
+ 1T1R_LHS_05_06_0[10]/VLS_1v8to5V_D1_And_VoltSelector_Layout_0/DATA_IN_LV_1 1T1R_LHS_05_06_0[14]/VLS_1v8to5V_D1_And_VoltSelector_Layout_0/V3
+ 1T1R_LHS_05_06_0[11]/VLS_1v8to5V_D1_And_VoltSelector_Layout_0/VDD_HIGH 1T1R_LHS_05_06_0[8]/1T1R_W1um_F4_layout_0/WL
+ 1T1R_LHS_05_06_0[14]/VLS_1v8to5V_D1_And_VoltSelector_Layout_0/VLS_g5D10_LV1v8_HV5V_0/DATA_OUT_HV_5V
+ 1T1R_LHS_05_06_0[7]/1T1R_W1um_F4_layout_0/WL 1T1R_LHS_05_06_0[10]/VLS_1v8to5V_D1_And_VoltSelector_Layout_0/DATA_IN_LV_0
+ 1T1R_LHS_05_06_0[14]/VLS_1v8to5V_D1_And_VoltSelector_Layout_0/V2 1T1R_LHS_05_06_0[10]/VLS_1v8to5V_D1_And_VoltSelector_Layout_0/VDD_LOW
+ 1T1R_LHS_05_06_0[1]/VLS_1v8to5V_D1_And_VoltSelector_Layout_0/VDD_HIGH VSUBS 1T1R_LHS_05_06_0[11]/VLS_1v8to5V_D1_And_VoltSelector_Layout_0/V4
+ 1T1R_LHS_05_06_0[14]/VLS_1v8to5V_D1_And_VoltSelector_Layout_0/V1 1T1R_LHS_05_06_0[12]/VLS_1v8to5V_D1_And_VoltSelector_Layout_0/VDD_HIGH
X1T1R_LHS_05_06_0[0] 1T1R_LHS_05_06_0[0]/VLS_1v8to5V_D1_And_VoltSelector_Layout_0/VDD_HIGH
+ 1T1R_LHS_05_06_0[9]/1T1R_W1um_F4_layout_0/BL 1T1R_LHS_05_06_0[0]/1T1R_W1um_F4_layout_0/WL
+ 1T1R_LHS_05_06_0[0]/VLS_1v8to5V_D1_And_VoltSelector_Layout_0/VLS_g5D10_LV1v8_HV5V_1/DATA_OUT_HV_5V
+ 1T1R_LHS_05_06_0[0]/VLS_1v8to5V_D1_And_VoltSelector_Layout_0/VLS_g5D10_LV1v8_HV5V_0/DATA_OUT_HV_5V
+ 1T1R_LHS_05_06_0[0]/VLS_1v8to5V_D1_And_VoltSelector_Layout_0/DATA_IN_LV_1 1T1R_LHS_05_06_0[0]/VLS_1v8to5V_D1_And_VoltSelector_Layout_0/DATA_IN_LV_0
+ 1T1R_LHS_05_06_0[0]/VLS_1v8to5V_D1_And_VoltSelector_Layout_0/V4 1T1R_LHS_05_06_0[0]/VLS_1v8to5V_D1_And_VoltSelector_Layout_0/V3
+ 1T1R_LHS_05_06_0[0]/VLS_1v8to5V_D1_And_VoltSelector_Layout_0/V2 1T1R_LHS_05_06_0[0]/VLS_1v8to5V_D1_And_VoltSelector_Layout_0/V1
+ 1T1R_LHS_05_06_0[9]/1T1R_W1um_F4_layout_0/SL VSUBS 1T1R_LHS_05_06_0[0]/VLS_1v8to5V_D1_And_VoltSelector_Layout_0/VDD_LOW
+ x1T1R_LHS_05_06
X1T1R_LHS_05_06_0[1] 1T1R_LHS_05_06_0[1]/VLS_1v8to5V_D1_And_VoltSelector_Layout_0/VDD_HIGH
+ 1T1R_LHS_05_06_0[9]/1T1R_W1um_F4_layout_0/BL 1T1R_LHS_05_06_0[1]/1T1R_W1um_F4_layout_0/WL
+ 1T1R_LHS_05_06_0[1]/VLS_1v8to5V_D1_And_VoltSelector_Layout_0/VLS_g5D10_LV1v8_HV5V_1/DATA_OUT_HV_5V
+ 1T1R_LHS_05_06_0[1]/VLS_1v8to5V_D1_And_VoltSelector_Layout_0/VLS_g5D10_LV1v8_HV5V_0/DATA_OUT_HV_5V
+ 1T1R_LHS_05_06_0[1]/VLS_1v8to5V_D1_And_VoltSelector_Layout_0/DATA_IN_LV_1 1T1R_LHS_05_06_0[1]/VLS_1v8to5V_D1_And_VoltSelector_Layout_0/DATA_IN_LV_0
+ 1T1R_LHS_05_06_0[1]/VLS_1v8to5V_D1_And_VoltSelector_Layout_0/V4 1T1R_LHS_05_06_0[1]/VLS_1v8to5V_D1_And_VoltSelector_Layout_0/V3
+ 1T1R_LHS_05_06_0[1]/VLS_1v8to5V_D1_And_VoltSelector_Layout_0/V2 1T1R_LHS_05_06_0[1]/VLS_1v8to5V_D1_And_VoltSelector_Layout_0/V1
+ 1T1R_LHS_05_06_0[9]/1T1R_W1um_F4_layout_0/SL VSUBS 1T1R_LHS_05_06_0[1]/VLS_1v8to5V_D1_And_VoltSelector_Layout_0/VDD_LOW
+ x1T1R_LHS_05_06
X1T1R_LHS_05_06_0[2] 1T1R_LHS_05_06_0[2]/VLS_1v8to5V_D1_And_VoltSelector_Layout_0/VDD_HIGH
+ 1T1R_LHS_05_06_0[9]/1T1R_W1um_F4_layout_0/BL 1T1R_LHS_05_06_0[2]/1T1R_W1um_F4_layout_0/WL
+ 1T1R_LHS_05_06_0[2]/VLS_1v8to5V_D1_And_VoltSelector_Layout_0/VLS_g5D10_LV1v8_HV5V_1/DATA_OUT_HV_5V
+ 1T1R_LHS_05_06_0[2]/VLS_1v8to5V_D1_And_VoltSelector_Layout_0/VLS_g5D10_LV1v8_HV5V_0/DATA_OUT_HV_5V
+ 1T1R_LHS_05_06_0[2]/VLS_1v8to5V_D1_And_VoltSelector_Layout_0/DATA_IN_LV_1 1T1R_LHS_05_06_0[2]/VLS_1v8to5V_D1_And_VoltSelector_Layout_0/DATA_IN_LV_0
+ 1T1R_LHS_05_06_0[2]/VLS_1v8to5V_D1_And_VoltSelector_Layout_0/V4 1T1R_LHS_05_06_0[2]/VLS_1v8to5V_D1_And_VoltSelector_Layout_0/V3
+ 1T1R_LHS_05_06_0[2]/VLS_1v8to5V_D1_And_VoltSelector_Layout_0/V2 1T1R_LHS_05_06_0[2]/VLS_1v8to5V_D1_And_VoltSelector_Layout_0/V1
+ 1T1R_LHS_05_06_0[9]/1T1R_W1um_F4_layout_0/SL VSUBS 1T1R_LHS_05_06_0[2]/VLS_1v8to5V_D1_And_VoltSelector_Layout_0/VDD_LOW
+ x1T1R_LHS_05_06
X1T1R_LHS_05_06_0[3] 1T1R_LHS_05_06_0[3]/VLS_1v8to5V_D1_And_VoltSelector_Layout_0/VDD_HIGH
+ 1T1R_LHS_05_06_0[9]/1T1R_W1um_F4_layout_0/BL 1T1R_LHS_05_06_0[3]/1T1R_W1um_F4_layout_0/WL
+ 1T1R_LHS_05_06_0[3]/VLS_1v8to5V_D1_And_VoltSelector_Layout_0/VLS_g5D10_LV1v8_HV5V_1/DATA_OUT_HV_5V
+ 1T1R_LHS_05_06_0[3]/VLS_1v8to5V_D1_And_VoltSelector_Layout_0/VLS_g5D10_LV1v8_HV5V_0/DATA_OUT_HV_5V
+ 1T1R_LHS_05_06_0[3]/VLS_1v8to5V_D1_And_VoltSelector_Layout_0/DATA_IN_LV_1 1T1R_LHS_05_06_0[3]/VLS_1v8to5V_D1_And_VoltSelector_Layout_0/DATA_IN_LV_0
+ 1T1R_LHS_05_06_0[3]/VLS_1v8to5V_D1_And_VoltSelector_Layout_0/V4 1T1R_LHS_05_06_0[3]/VLS_1v8to5V_D1_And_VoltSelector_Layout_0/V3
+ 1T1R_LHS_05_06_0[3]/VLS_1v8to5V_D1_And_VoltSelector_Layout_0/V2 1T1R_LHS_05_06_0[3]/VLS_1v8to5V_D1_And_VoltSelector_Layout_0/V1
+ 1T1R_LHS_05_06_0[9]/1T1R_W1um_F4_layout_0/SL VSUBS 1T1R_LHS_05_06_0[3]/VLS_1v8to5V_D1_And_VoltSelector_Layout_0/VDD_LOW
+ x1T1R_LHS_05_06
X1T1R_LHS_05_06_0[4] 1T1R_LHS_05_06_0[4]/VLS_1v8to5V_D1_And_VoltSelector_Layout_0/VDD_HIGH
+ 1T1R_LHS_05_06_0[9]/1T1R_W1um_F4_layout_0/BL 1T1R_LHS_05_06_0[4]/1T1R_W1um_F4_layout_0/WL
+ 1T1R_LHS_05_06_0[4]/VLS_1v8to5V_D1_And_VoltSelector_Layout_0/VLS_g5D10_LV1v8_HV5V_1/DATA_OUT_HV_5V
+ 1T1R_LHS_05_06_0[4]/VLS_1v8to5V_D1_And_VoltSelector_Layout_0/VLS_g5D10_LV1v8_HV5V_0/DATA_OUT_HV_5V
+ 1T1R_LHS_05_06_0[4]/VLS_1v8to5V_D1_And_VoltSelector_Layout_0/DATA_IN_LV_1 1T1R_LHS_05_06_0[4]/VLS_1v8to5V_D1_And_VoltSelector_Layout_0/DATA_IN_LV_0
+ 1T1R_LHS_05_06_0[4]/VLS_1v8to5V_D1_And_VoltSelector_Layout_0/V4 1T1R_LHS_05_06_0[4]/VLS_1v8to5V_D1_And_VoltSelector_Layout_0/V3
+ 1T1R_LHS_05_06_0[4]/VLS_1v8to5V_D1_And_VoltSelector_Layout_0/V2 1T1R_LHS_05_06_0[4]/VLS_1v8to5V_D1_And_VoltSelector_Layout_0/V1
+ 1T1R_LHS_05_06_0[9]/1T1R_W1um_F4_layout_0/SL VSUBS 1T1R_LHS_05_06_0[4]/VLS_1v8to5V_D1_And_VoltSelector_Layout_0/VDD_LOW
+ x1T1R_LHS_05_06
X1T1R_LHS_05_06_0[5] 1T1R_LHS_05_06_0[5]/VLS_1v8to5V_D1_And_VoltSelector_Layout_0/VDD_HIGH
+ 1T1R_LHS_05_06_0[9]/1T1R_W1um_F4_layout_0/BL 1T1R_LHS_05_06_0[5]/1T1R_W1um_F4_layout_0/WL
+ 1T1R_LHS_05_06_0[5]/VLS_1v8to5V_D1_And_VoltSelector_Layout_0/VLS_g5D10_LV1v8_HV5V_1/DATA_OUT_HV_5V
+ 1T1R_LHS_05_06_0[5]/VLS_1v8to5V_D1_And_VoltSelector_Layout_0/VLS_g5D10_LV1v8_HV5V_0/DATA_OUT_HV_5V
+ 1T1R_LHS_05_06_0[5]/VLS_1v8to5V_D1_And_VoltSelector_Layout_0/DATA_IN_LV_1 1T1R_LHS_05_06_0[5]/VLS_1v8to5V_D1_And_VoltSelector_Layout_0/DATA_IN_LV_0
+ 1T1R_LHS_05_06_0[5]/VLS_1v8to5V_D1_And_VoltSelector_Layout_0/V4 1T1R_LHS_05_06_0[5]/VLS_1v8to5V_D1_And_VoltSelector_Layout_0/V3
+ 1T1R_LHS_05_06_0[5]/VLS_1v8to5V_D1_And_VoltSelector_Layout_0/V2 1T1R_LHS_05_06_0[5]/VLS_1v8to5V_D1_And_VoltSelector_Layout_0/V1
+ 1T1R_LHS_05_06_0[9]/1T1R_W1um_F4_layout_0/SL VSUBS 1T1R_LHS_05_06_0[5]/VLS_1v8to5V_D1_And_VoltSelector_Layout_0/VDD_LOW
+ x1T1R_LHS_05_06
X1T1R_LHS_05_06_0[6] 1T1R_LHS_05_06_0[6]/VLS_1v8to5V_D1_And_VoltSelector_Layout_0/VDD_HIGH
+ 1T1R_LHS_05_06_0[9]/1T1R_W1um_F4_layout_0/BL 1T1R_LHS_05_06_0[6]/1T1R_W1um_F4_layout_0/WL
+ 1T1R_LHS_05_06_0[6]/VLS_1v8to5V_D1_And_VoltSelector_Layout_0/VLS_g5D10_LV1v8_HV5V_1/DATA_OUT_HV_5V
+ 1T1R_LHS_05_06_0[6]/VLS_1v8to5V_D1_And_VoltSelector_Layout_0/VLS_g5D10_LV1v8_HV5V_0/DATA_OUT_HV_5V
+ 1T1R_LHS_05_06_0[6]/VLS_1v8to5V_D1_And_VoltSelector_Layout_0/DATA_IN_LV_1 1T1R_LHS_05_06_0[6]/VLS_1v8to5V_D1_And_VoltSelector_Layout_0/DATA_IN_LV_0
+ 1T1R_LHS_05_06_0[6]/VLS_1v8to5V_D1_And_VoltSelector_Layout_0/V4 1T1R_LHS_05_06_0[6]/VLS_1v8to5V_D1_And_VoltSelector_Layout_0/V3
+ 1T1R_LHS_05_06_0[6]/VLS_1v8to5V_D1_And_VoltSelector_Layout_0/V2 1T1R_LHS_05_06_0[6]/VLS_1v8to5V_D1_And_VoltSelector_Layout_0/V1
+ 1T1R_LHS_05_06_0[9]/1T1R_W1um_F4_layout_0/SL VSUBS 1T1R_LHS_05_06_0[6]/VLS_1v8to5V_D1_And_VoltSelector_Layout_0/VDD_LOW
+ x1T1R_LHS_05_06
X1T1R_LHS_05_06_0[7] 1T1R_LHS_05_06_0[7]/VLS_1v8to5V_D1_And_VoltSelector_Layout_0/VDD_HIGH
+ 1T1R_LHS_05_06_0[9]/1T1R_W1um_F4_layout_0/BL 1T1R_LHS_05_06_0[7]/1T1R_W1um_F4_layout_0/WL
+ 1T1R_LHS_05_06_0[7]/VLS_1v8to5V_D1_And_VoltSelector_Layout_0/VLS_g5D10_LV1v8_HV5V_1/DATA_OUT_HV_5V
+ 1T1R_LHS_05_06_0[7]/VLS_1v8to5V_D1_And_VoltSelector_Layout_0/VLS_g5D10_LV1v8_HV5V_0/DATA_OUT_HV_5V
+ 1T1R_LHS_05_06_0[7]/VLS_1v8to5V_D1_And_VoltSelector_Layout_0/DATA_IN_LV_1 1T1R_LHS_05_06_0[7]/VLS_1v8to5V_D1_And_VoltSelector_Layout_0/DATA_IN_LV_0
+ 1T1R_LHS_05_06_0[7]/VLS_1v8to5V_D1_And_VoltSelector_Layout_0/V4 1T1R_LHS_05_06_0[7]/VLS_1v8to5V_D1_And_VoltSelector_Layout_0/V3
+ 1T1R_LHS_05_06_0[7]/VLS_1v8to5V_D1_And_VoltSelector_Layout_0/V2 1T1R_LHS_05_06_0[7]/VLS_1v8to5V_D1_And_VoltSelector_Layout_0/V1
+ 1T1R_LHS_05_06_0[9]/1T1R_W1um_F4_layout_0/SL VSUBS 1T1R_LHS_05_06_0[7]/VLS_1v8to5V_D1_And_VoltSelector_Layout_0/VDD_LOW
+ x1T1R_LHS_05_06
X1T1R_LHS_05_06_0[8] 1T1R_LHS_05_06_0[8]/VLS_1v8to5V_D1_And_VoltSelector_Layout_0/VDD_HIGH
+ 1T1R_LHS_05_06_0[9]/1T1R_W1um_F4_layout_0/BL 1T1R_LHS_05_06_0[8]/1T1R_W1um_F4_layout_0/WL
+ 1T1R_LHS_05_06_0[8]/VLS_1v8to5V_D1_And_VoltSelector_Layout_0/VLS_g5D10_LV1v8_HV5V_1/DATA_OUT_HV_5V
+ 1T1R_LHS_05_06_0[8]/VLS_1v8to5V_D1_And_VoltSelector_Layout_0/VLS_g5D10_LV1v8_HV5V_0/DATA_OUT_HV_5V
+ 1T1R_LHS_05_06_0[8]/VLS_1v8to5V_D1_And_VoltSelector_Layout_0/DATA_IN_LV_1 1T1R_LHS_05_06_0[8]/VLS_1v8to5V_D1_And_VoltSelector_Layout_0/DATA_IN_LV_0
+ 1T1R_LHS_05_06_0[8]/VLS_1v8to5V_D1_And_VoltSelector_Layout_0/V4 1T1R_LHS_05_06_0[8]/VLS_1v8to5V_D1_And_VoltSelector_Layout_0/V3
+ 1T1R_LHS_05_06_0[8]/VLS_1v8to5V_D1_And_VoltSelector_Layout_0/V2 1T1R_LHS_05_06_0[8]/VLS_1v8to5V_D1_And_VoltSelector_Layout_0/V1
+ 1T1R_LHS_05_06_0[9]/1T1R_W1um_F4_layout_0/SL VSUBS 1T1R_LHS_05_06_0[8]/VLS_1v8to5V_D1_And_VoltSelector_Layout_0/VDD_LOW
+ x1T1R_LHS_05_06
X1T1R_LHS_05_06_0[9] 1T1R_LHS_05_06_0[9]/VLS_1v8to5V_D1_And_VoltSelector_Layout_0/VDD_HIGH
+ 1T1R_LHS_05_06_0[9]/1T1R_W1um_F4_layout_0/BL 1T1R_LHS_05_06_0[9]/1T1R_W1um_F4_layout_0/WL
+ 1T1R_LHS_05_06_0[9]/VLS_1v8to5V_D1_And_VoltSelector_Layout_0/VLS_g5D10_LV1v8_HV5V_1/DATA_OUT_HV_5V
+ 1T1R_LHS_05_06_0[9]/VLS_1v8to5V_D1_And_VoltSelector_Layout_0/VLS_g5D10_LV1v8_HV5V_0/DATA_OUT_HV_5V
+ 1T1R_LHS_05_06_0[9]/VLS_1v8to5V_D1_And_VoltSelector_Layout_0/DATA_IN_LV_1 1T1R_LHS_05_06_0[9]/VLS_1v8to5V_D1_And_VoltSelector_Layout_0/DATA_IN_LV_0
+ 1T1R_LHS_05_06_0[9]/VLS_1v8to5V_D1_And_VoltSelector_Layout_0/V4 1T1R_LHS_05_06_0[9]/VLS_1v8to5V_D1_And_VoltSelector_Layout_0/V3
+ 1T1R_LHS_05_06_0[9]/VLS_1v8to5V_D1_And_VoltSelector_Layout_0/V2 1T1R_LHS_05_06_0[9]/VLS_1v8to5V_D1_And_VoltSelector_Layout_0/V1
+ 1T1R_LHS_05_06_0[9]/1T1R_W1um_F4_layout_0/SL VSUBS 1T1R_LHS_05_06_0[9]/VLS_1v8to5V_D1_And_VoltSelector_Layout_0/VDD_LOW
+ x1T1R_LHS_05_06
X1T1R_LHS_05_06_0[10] 1T1R_LHS_05_06_0[10]/VLS_1v8to5V_D1_And_VoltSelector_Layout_0/VDD_HIGH
+ 1T1R_LHS_05_06_0[9]/1T1R_W1um_F4_layout_0/BL 1T1R_LHS_05_06_0[10]/1T1R_W1um_F4_layout_0/WL
+ 1T1R_LHS_05_06_0[10]/VLS_1v8to5V_D1_And_VoltSelector_Layout_0/VLS_g5D10_LV1v8_HV5V_1/DATA_OUT_HV_5V
+ 1T1R_LHS_05_06_0[10]/VLS_1v8to5V_D1_And_VoltSelector_Layout_0/VLS_g5D10_LV1v8_HV5V_0/DATA_OUT_HV_5V
+ 1T1R_LHS_05_06_0[10]/VLS_1v8to5V_D1_And_VoltSelector_Layout_0/DATA_IN_LV_1 1T1R_LHS_05_06_0[10]/VLS_1v8to5V_D1_And_VoltSelector_Layout_0/DATA_IN_LV_0
+ 1T1R_LHS_05_06_0[10]/VLS_1v8to5V_D1_And_VoltSelector_Layout_0/V4 1T1R_LHS_05_06_0[10]/VLS_1v8to5V_D1_And_VoltSelector_Layout_0/V3
+ 1T1R_LHS_05_06_0[10]/VLS_1v8to5V_D1_And_VoltSelector_Layout_0/V2 1T1R_LHS_05_06_0[10]/VLS_1v8to5V_D1_And_VoltSelector_Layout_0/V1
+ 1T1R_LHS_05_06_0[9]/1T1R_W1um_F4_layout_0/SL VSUBS 1T1R_LHS_05_06_0[10]/VLS_1v8to5V_D1_And_VoltSelector_Layout_0/VDD_LOW
+ x1T1R_LHS_05_06
X1T1R_LHS_05_06_0[11] 1T1R_LHS_05_06_0[11]/VLS_1v8to5V_D1_And_VoltSelector_Layout_0/VDD_HIGH
+ 1T1R_LHS_05_06_0[9]/1T1R_W1um_F4_layout_0/BL 1T1R_LHS_05_06_0[11]/1T1R_W1um_F4_layout_0/WL
+ 1T1R_LHS_05_06_0[11]/VLS_1v8to5V_D1_And_VoltSelector_Layout_0/VLS_g5D10_LV1v8_HV5V_1/DATA_OUT_HV_5V
+ 1T1R_LHS_05_06_0[11]/VLS_1v8to5V_D1_And_VoltSelector_Layout_0/VLS_g5D10_LV1v8_HV5V_0/DATA_OUT_HV_5V
+ 1T1R_LHS_05_06_0[11]/VLS_1v8to5V_D1_And_VoltSelector_Layout_0/DATA_IN_LV_1 1T1R_LHS_05_06_0[11]/VLS_1v8to5V_D1_And_VoltSelector_Layout_0/DATA_IN_LV_0